13
 
C            22.230  18.539   0.034
C            20.995  19.252   0.000
C            20.995  20.678   0.034
C            24.700  17.113   0.000
C            24.700  18.539   0.034
C            23.465  19.252   0.000
C            23.465  20.678   0.034
C            22.230  21.391   0.000
C            24.700  21.391   0.000
C            24.700  22.817   0.034
C            27.170  22.817   0.034
C            25.935  23.530   0.000
C            25.935  24.956   0.034
