65
 
C            23.465   7.843   0.034
C            22.230   8.556   0.000
C            22.230   9.982   0.034
C            25.935   6.417   0.000
C            25.935   7.843   0.034
C            24.700   8.556   0.000
C            24.700   9.982   0.034
C            20.995  10.695   0.000
C            20.995  12.121   0.034
C            19.760  12.834   0.000
C            19.760  14.260   0.034
C            23.465  10.695   0.000
C            23.465  12.121   0.034
C            22.230  12.834   0.000
C            22.230  14.260   0.034
C            20.995  14.974   0.000
C            20.995  16.400   0.034
C            18.525  20.678   0.034
C            25.935  10.695   0.000
C            25.935  12.121   0.034
C            24.700  12.834   0.000
C            24.700  14.260   0.034
C            23.465  14.974   0.000
C            23.465  16.400   0.034
C            22.230  17.113   0.000
C            22.230  18.539   0.034
C            20.995  19.252   0.000
C            20.995  20.678   0.034
C            27.170  12.834   0.000
C            27.170  14.260   0.034
C            25.935  14.974   0.000
C            25.935  16.400   0.034
C            24.700  17.113   0.000
C            24.700  18.539   0.034
C            23.465  19.252   0.000
C            23.465  20.678   0.034
C            28.405  14.974   0.000
C            28.405  16.400   0.034
C            27.170  17.113   0.000
C            27.170  18.539   0.034
C            25.935  19.252   0.000
C            25.935  20.678   0.034
C            29.640  17.113   0.000
C            29.640  18.539   0.034
C            28.405  19.252   0.000
C            28.405  20.678   0.034
C            30.875  19.252   0.000
C            30.875  20.678   0.034
C            19.760  21.391   0.000
C            19.760  22.817   0.034
C            18.525  23.530   0.000
C            18.525  24.956   0.034
C            22.230  21.391   0.000
C            24.700  21.391   0.000
C            24.700  22.817   0.034
C            27.170  21.391   0.000
C            27.170  22.817   0.034
C            25.935  23.530   0.000
C            25.935  24.956   0.034
C            29.640  21.391   0.000
C            29.640  22.817   0.034
C            28.405  23.530   0.000
C            30.875  23.530   0.000
C            30.875  24.956   0.034
C            32.110  25.669   0.000
